[General]
network = opennetwork
sim-time-limit = 1h
**.numJobs = 6
**.queue1.serviceTime = 3s
**.queue2.serviceTime = 3s
